function mpc = case_WECC240_line_limits_updated
%CASE_WECC240_LINE_LIMITS
% all renewables and dispatchable loads are set inactive in this model
% cost functions for coal are modified so they are not linear
% hydro is derated to ~20% of its original capacity

%% MATPOWER Case Format : Version 2
mpc.version = '2';

%%-----  Power Flow Data  -----%%
%% system MVA base
mpc.baseMVA = 100;

%% bus data
%	bus_i	type	Pd	Qd	Gs	Bs	area	Vm	Va	baseKV	zone	Vmax	Vmin
mpc.bus = [
	1001	1	0	0	0	0	10	1.02984	7.284	500	10	1.1	0.9;
	1002	1	179.00423	0	0	0	10	1.014	11.0351	345	10	1.1	0.9;
	1003	1	1699.21793	0	0	0	10	0.97318	2.3746	230	10	1.1	0.9;
	1004	1	819.061311	0	0	0	10	1.06648	23.6955	345	10	1.1	0.9;
	1032	2	0	0	0	0	10	1.01659	11.6154	20	10	1.1	0.9;
	1034	2	0	0	0	0	10	1.07305	25.4071	20	10	1.1	0.9;
	1101	1	3572.61025	0	0	0	10	1.01	-18.4206	500	10	1.1	0.9;
	1102	1	139.234212	0	0	0	10	0.97727	-6.4973	345	10	1.1	0.9;
	1131	2	0	0	0	0	10	1.01126	-17.8932	20	10	1.1	0.9;
	1201	1	131.772804	0	0	0	10	1.08433	-8.9977	500	10	1.1	0.9;
	1202	1	690.956555	0	0	0	10	1.08	-6.0123	500	10	1.1	0.9;
	1232	2	0	0	0	0	10	1.0807	-5.1815	20	10	1.1	0.9;
	1301	1	2134.38056	0	0	0	10	1.045	-13.0999	500	10	1.1	0.9;
	1302	1	13.8533838	0	0	0	10	1.02783	-12.416	500	10	1.1	0.9;
	1303	1	4920.23624	0	0	0	10	1.005	-14.5694	345	10	1.1	0.9;
	1331	2	0	0	0	0	10	1.04552	-12.0196	20	10	1.1	0.9;
	1333	2	0	0	0	0	10	1.00803	-13.1142	20	10	1.1	0.9;
	1401	1	5157.28662	0	0	0	10	1.035	-19.4639	500	10	1.1	0.9;
	1402	1	4234.88594	0	0	0	10	1.05631	-24.3167	500	10	1.1	0.9;
	1403	1	0	0	0	0	10	1.03567	-19.3847	230	10	1.1	0.9;
	1431	2	0	0	0	0	10	1.04034	-17.104	20	10	1.1	0.9;
	2000	1	1606.5	0	0	0	20	1	-24.5375	230	20	1.1	0.9;
	2030	2	0	0	0	0	20	1.00143	-23.8343	20	20	1.1	0.9;
	2100	1	737.1	0	0	0	21	1.03405	-18.9599	230	21	1.1	0.9;
	2130	2	0	0	0	0	21	1.03491	-18.6043	20	21	1.1	0.9;
	2201	1	0	0	0	0	22	0.98831	-35.0872	500	22	1.1	0.9;
	2202	1	1568.04616	0	0	0	22	0.98575	-36.4536	230	22	1.1	0.9;
	2203	1	1732.97384	0	0	0	22	1.005	-37.0417	230	22	1.1	0.9;
	2233	2	0	0	0	0	22	1.00732	-36.7604	20	22	1.1	0.9;
	2301	1	0	0	0	0	22	1.03448	-21.8324	500	23	1.1	0.9;
	2302	1	0	0	0	0	22	1.035	-20.7659	230	23	1.1	0.9;
	2332	2	0	0	0	0	22	1.03543	-20.5312	20	23	1.1	0.9;
	2400	1	919.348922	0	0	0	24	1.0205	-26.3689	500	24	1.1	0.9;
	2401	1	961.94372	0	0	0	24	1.02999	-19.1442	500	24	1.1	0.9;
	2402	1	1177.4268	0	0	0	24	1.01312	-24.5322	500	24	1.1	0.9;
	2403	1	1144.70356	0	0	0	24	1.0129	-29.212	500	24	1.1	0.9;
	2404	1	0	0	0	0	24	1.01543	-12.9838	500	24	1.1	0.9;
	2405	1	899.060483	0	0	0	24	1.01124	-15.9177	230	24	1.1	0.9;
	2406	1	803.909819	0	0	0	24	1.00189	-16.893	230	24	1.1	0.9;
	2407	1	1889.04912	0	0	0	24	0.96838	-19.0006	230	24	1.1	0.9;
	2408	1	1900.50244	0	0	0	24	1.009	-5.9591	230	24	1.1	0.9;
	2409	1	1746.24157	0	0	0	24	1.00678	-26.4818	230	24	1.1	0.9;
	2410	1	1718.99718	0	0	0	24	1.00274	-19.5615	230	24	1.1	0.9;
	2411	1	1185.71639	0	0	0	24	1.00888	-15.3366	230	24	1.1	0.9;
	2438	2	0	0	0	0	24	1.01283	-3.9021	20	24	1.1	0.9;
	2501	1	0	0	0	0	25	1.00884	-26.6839	500	25	1.1	0.9;
	2502	1	2446.58968	0	0	0	25	1.00515	-28.0274	230	25	1.1	0.9;
	2503	1	1906.26032	0	0	0	25	1.009	-31.5907	230	25	1.1	0.9;
	2533	2	0	0	0	0	25	1.01077	-31.0075	20	25	1.1	0.9;
	2600	1	931.671831	0	0	0	26	1.04252	-14.102	500	90	1.1	0.9;
	2601	1	0	0	0	0	26	1.0403	-14.7552	500	26	1.1	0.9;
	2602	1	49.6242669	0	0	0	26	1.01689	-14.7522	500	26	1.1	0.9;
	2603	1	0	0	0	0	26	1.0427	-14.8216	500	26	1.1	0.9;
	2604	1	1025.08232	0	0	0	90	1.06	2.0761	345	90	1.1	0.9;
	2605	1	0	0	0	0	26	1.01617	-12.9755	287	26	1.1	0.9;
	2606	1	0	0	0	0	26	1.01617	-12.9755	287	26	1.1	0.9;
	2607	1	0	0	0	0	26	1.03742	-14.212	287	26	1.1	0.9;
	2608	1	49.6242669	0	0	0	26	1.02295	-15.7572	230	26	1.1	0.9;
	2609	1	66.9928882	0	0	0	26	0.99753	-13.3701	230	26	1.1	0.9;
	2610	1	49.6242669	0	0	0	26	1.004	0.6244	230	26	1.1	0.9;
	2611	1	49.6242669	0	0	0	26	1.02086	-14.9865	230	26	1.1	0.9;
	2612	1	60.0457817	0	0	0	26	1.015	-15.1853	230	26	1.1	0.9;
	2613	1	158.798712	0	0	0	26	0.99259	-10.0445	230	26	1.1	0.9;
	2614	1	68.4817398	0	0	0	26	0.99908	-11.6594	230	26	1.1	0.9;
	2615	1	400.867167	0	0	0	26	1.00325	-14.6683	230	26	1.1	0.9;
	2616	1	58.0607782	0	0	0	26	0.9943	-10.3848	230	26	1.1	0.9;
	2617	1	60.0457817	0	0	0	26	0.99561	-11.9908	230	26	1.1	0.9;
	2618	1	440.517137	0	0	0	26	1.01246	-16.3506	230	26	1.1	0.9;
	2619	1	1386.49971	0	0	0	90	1.01337	-14.6418	230	90	1.1	0.9;
	2620	1	101.829659	0	0	0	26	1.00929	-15.4034	230	26	1.1	0.9;
	2621	1	117.709428	0	0	0	26	1.00909	-12.7538	138	26	1.1	0.9;
	2630	2	0	0	0	0	26	1.00498	1.2723	20	26	1.1	0.9;
	2631	2	0	0	0	0	26	1.0215	-14.9227	20	26	1.1	0.9;
	2634	2	0	0	0	0	26	1.06065	2.5049	20	90	1.1	0.9;
	2637	2	0	0	0	0	26	1.01545	-15.1547	20	26	1.1	0.9;
	2638	2	0	0	0	0	26	1.02336	-15.7572	20	26	1.1	0.9;
	2901	1	0	0	0	0	24	1.09191	-13.8926	500	29	1.1	0.9;
	2902	1	0	0	0	0	24	1.09971	-15.5557	500	29	1.1	0.9;
	3101	1	287.971903	0	0	0	31	0.98526	-11.0651	230	31	1.1	0.9;
	3102	1	134.546191	0	0	0	31	0.9905	-9.8081	230	31	1.1	0.9;
	3103	1	427.526274	0	0	0	32	1	-7.64	230	31	1.1	0.9;
	3104	1	261.534364	0	0	0	31	0.98667	-16.0847	115	31	1.1	0.9;
	3105	1	201.907542	0	0	0	31	1	-16.961	115	31	1.1	0.9;
	3133	2	0	0	0	0	32	1.00118	-7.6311	20	31	1.1	0.9;
	3135	2	0	0	0	0	31	1.00047	-16.9059	20	31	1.1	0.9;
	3201	1	471.200886	0	0	0	32	1.00705	-4.1683	230	32	1.1	0.9;
	3202	1	597.236962	0	0	0	32	1.00507	-4.8363	230	32	1.1	0.9;
	3203	1	669.499966	0	0	0	32	1.00164	-5.3525	230	32	1.1	0.9;
	3204	1	681.403656	0	0	0	32	1.01	-3.5694	230	32	1.1	0.9;
	3205	1	556.361582	0	0	0	32	1.0019	-5.0467	230	32	1.1	0.9;
	3234	2	0	0	0	0	32	1.01185	-2.9051	20	32	1.1	0.9;
	3301	1	0	0	0	0	32	0.99283	-6.0118	500	33	1.1	0.9;
	3302	1	351.839995	0	0	0	32	0.98505	-10.0572	230	33	1.1	0.9;
	3303	1	637.208101	0	0	0	32	1	-6.886	230	33	1.1	0.9;
	3304	1	543.5456	0	0	0	32	0.98953	-8.9183	230	33	1.1	0.9;
	3305	1	438.436984	0	0	0	32	0.99781	-7.0505	230	33	1.1	0.9;
	3333	2	0	0	0	0	32	1.00266	-6.6542	20	33	1.1	0.9;
	3401	1	640.75753	0	0	0	34	0.9703	-15.8304	230	34	1.1	0.9;
	3402	1	0	0	0	0	34	1	-16.02	230	34	1.1	0.9;
	3403	1	592.803696	0	0	0	34	1	-4.4676	230	34	1.1	0.9;
	3404	1	503.754009	0	0	0	34	0.97523	-9.2216	230	34	1.1	0.9;
	3405	1	515.744765	0	0	0	34	0.95898	-17.8603	230	34	1.1	0.9;
	3432	2	0	0	0	0	34	1.00095	-16.02	20	34	1.1	0.9;
	3433	2	0	0	0	0	34	1.00072	-4.167	20	34	1.1	0.9;
	3501	1	528.12	0	0	0	35	1	-0.3372	230	35	1.1	0.9;
	3531	2	0	0	0	0	35	1.00035	-0.0253	20	35	1.1	0.9;
	3601	1	85.05	0	0	0	36	1.015	3.4349	115	36	1.1	0.9;
	3631	2	0	0	0	0	36	1.01483	3.462	20	36	1.1	0.9;
	3701	1	457.56	0	0	0	37	1.004	-15.5424	115	37	1.1	0.9;
	3731	2	0	0	0	0	37	1.00499	-15.4794	20	37	1.1	0.9;
	3801	1	227.320622	0	0	0	38	1.049	-0.4789	500	38	1.1	0.9;
	3802	1	0	0	0	0	38	1.00676	-5.662	500	38	1.1	0.9;
	3803	1	0	0	0	0	38	1.02038	-8.3306	500	38	1.1	0.9;
	3804	1	265.857671	0	0	0	38	0.98982	-8.5631	230	38	1.1	0.9;
	3805	1	593.659925	0	0	0	38	1.035	-8.4738	230	38	1.1	0.9;
	3806	1	344.251782	0	0	0	38	1.019	-5.4081	230	38	1.1	0.9;
	3831	2	0	0	0	0	38	1.05081	0.069	20	38	1.1	0.9;
	3835	2	0	0	0	0	38	1.03719	-8.3993	20	38	1.1	0.9;
	3836	2	0	0	0	0	38	1.0192	-5.2208	20	38	1.1	0.9;
	3891	1	0	0	0	0	38	1.04164	-12.3857	500	38	1.1	0.9;
	3892	1	0	0	0	0	38	1.01052	-3.0467	500	38	1.1	0.9;
	3893	1	0	0	0	0	38	1.02256	-18.1664	500	38	1.1	0.9;
	3894	1	0	0	0	0	38	1.01028	-2.9582	500	38	1.1	0.9;
	3895	1	0	0	0	0	38	1.02289	-18.1994	500	38	1.1	0.9;
	3896	1	0	0	0	0	38	1.01089	-2.6906	500	38	1.1	0.9;
	3897	1	0	0	0	0	38	1.02386	-17.9493	500	38	1.1	0.9;
	3901	1	0	0	0	0	39	0.93761	1.1842	500	39	1.1	0.9;
	3902	1	158.68376	0	0	0	39	1	0.1517	500	39	1.1	0.9;
	3903	1	221.182269	0	0	0	39	1.00147	-3.5656	500	39	1.1	0.9;
	3904	1	0	0	0	0	39	1.08142	8.1428	500	39	1.1	0.9;
	3905	1	0	0	0	0	39	1.03509	5.7141	500	39	1.1	0.9;
	3906	1	0	0	0	0	39	1.06427	9.7747	500	39	1.1	0.9;
	3907	1	478.523361	0	0	0	39	0.9615	-15.9175	230	39	1.1	0.9;
	3908	1	207.730721	0	0	0	39	0.96379	-16.4182	230	39	1.1	0.9;
	3909	1	177.317924	0	0	0	39	0.96839	-13.5893	230	39	1.1	0.9;
	3910	1	250.837489	0	0	0	39	0.97886	-8.5668	230	39	1.1	0.9;
	3911	1	241.808908	0	0	0	39	1.03652	3.5884	230	39	1.1	0.9;
	3912	1	180.99576	0	0	0	39	1.02038	-4.3147	230	39	1.1	0.9;
	3913	1	341.810151	0	0	0	39	0.978	-12.3981	230	39	1.1	0.9;
	3914	1	236.227797	0	0	0	39	0.99051	-4.5614	230	39	1.1	0.9;
	3915	1	263.926739	0	0	0	39	1.00124	-3.8372	230	39	1.1	0.9;
	3916	1	160.769687	0	0	0	39	1.01995	-4.4509	230	39	1.1	0.9;
	3917	1	247.050644	0	0	0	39	0.94562	-4.3999	230	39	1.1	0.9;
	3918	1	331.16062	0	0	0	39	0.99024	-5.9963	230	39	1.1	0.9;
	3919	1	191.374471	0	0	0	39	0.97393	-10.8162	230	39	1.1	0.9;
	3920	1	178.920203	0	0	0	39	0.9771	-13.4128	230	39	1.1	0.9;
	3921	1	156.50448	0	0	0	39	1.07	12.8381	230	39	1.1	0.9;
	3922	1	262.875529	0	0	0	39	0.99452	-4.9748	230	39	1.1	0.9;
	3923	1	413.909984	0	0	0	39	1.012	-1.2286	230	39	1.1	0.9;
	3924	1	344.859021	0	0	0	39	1.02114	-2.0137	230	39	1.1	0.9;
	3925	1	0	0	0	0	39	1.0268	3.4834	115	39	1.1	0.9;
	3926	1	277.300496	0	0	0	39	0.98959	-15.6257	115	39	1.1	0.9;
	3931	2	0	0	0	0	39	1.07075	13.1692	20	39	1.1	0.9;
	3932	2	0	0	0	0	39	1.00337	0.5737	20	39	1.1	0.9;
	3933	3	0	0	0	0	39	1.01339	0	20	39	1.1	0.9;
	4001	1	0	0	0	0	40	1.08	11.9939	500	40	1.1	0.9;
	4002	1	159.564152	0	0	0	40	1.14175	15.8031	500	40	1.1	0.9;
	4003	1	0	0	0	0	40	1.20872	16.7937	500	40	1.1	0.9;
	4004	1	255.828511	0	0	0	40	1.11615	20.5178	500	40	1.1	0.9;
	4005	1	454.156877	0	0	0	40	1.121	29.8211	500	40	1.1	0.9;
	4006	1	0	0	0	0	40	1.1101	27.2906	500	40	1.1	0.9;
	4007	1	2964.19054	0	0	0	40	1.10993	27.1703	500	40	1.1	0.9;
	4008	1	269.728173	0	0	0	40	1.06829	8.9971	345	40	1.1	0.9;
	4009	1	2089.32657	0	0	0	40	1.10948	25.797	230	40	1.1	0.9;
	4010	1	0	0	0	0	90	1.10915	25.3938	230	90	1.1	0.9;
	4031	2	0	0	0	0	40	1.08102	12.4735	20	40	1.1	0.9;
	4035	2	0	0	0	0	40	1.126	30.767	20	40	1.1	0.9;
	4039	2	0	0	0	0	40	1.11258	26.4286	20	40	1.1	0.9;
	4090	1	0	0	0	0	40	1.13412	15.2647	500	40	1.1	0.9;
	4091	1	0	0	0	0	40	1.13015	18.5208	500	40	1.1	0.9;
	4092	1	0	0	0	0	40	1.09959	14.1003	500	40	1.1	0.9;
	4093	1	0	0	0	0	40	1.09844	13.2511	500	40	1.1	0.9;
	4094	1	0	0	0	0	40	1.11332	19.6847	500	40	1.1	0.9;
	4095	1	0	0	0	0	40	1.0981	13.7295	500	40	1.1	0.9;
	4096	1	0	0	0	0	40	1.09693	12.8302	500	40	1.1	0.9;
	4097	1	0	0	0	0	40	1.1127	19.6397	500	40	1.1	0.9;
	4101	1	941.231043	0	0	0	40	1.128	53.6816	500	41	1.1	0.9;
	4102	1	454.662576	0	0	0	40	1.096	41.8662	500	41	1.1	0.9;
	4103	1	10.9982968	0	0	0	40	1.09056	37.7321	500	41	1.1	0.9;
	4104	1	2391.10763	0	0	0	40	1.06153	27.886	230	41	1.1	0.9;
	4131	2	0	0	0	0	40	1.13184	55.9553	20	41	1.1	0.9;
	4132	2	0	0	0	0	40	1.09413	43.4837	20	41	1.1	0.9;
	4201	1	5451.09903	0	0	0	40	1.12	45.329	500	42	1.1	0.9;
	4202	1	4311.79636	0	0	0	40	1.08	27.2043	500	42	1.1	0.9;
	4203	1	4142.8404	0	0	0	40	1.03563	22.3383	500	42	1.1	0.9;
	4204	1	959.669869	0	0	0	40	1.07149	12.6949	500	42	1.1	0.9;
	4231	2	0	0	0	0	40	1.12648	46.3744	20	42	1.1	0.9;
	4232	2	0	0	0	0	40	1.08376	27.4579	20	42	1.1	0.9;
	5001	1	6169.10724	0	0	0	50	1.05	46.5368	500	50	1.1	0.9;
	5002	1	7333.79448	0	0	0	50	1.055	50.6743	500	50	1.1	0.9;
	5003	1	501.098284	0	0	0	50	1.0482	43.5492	230	50	1.1	0.9;
	5004	1	0	0	0	0	50	1.05346	35.6216	230	50	1.1	0.9;
	5031	2	0	0	0	0	50	1.05527	48.4899	20	50	1.1	0.9;
	5032	2	0	0	0	0	50	1.06129	53.3593	20	50	1.1	0.9;
	6101	1	0	0	0	0	61	1.16458	18.3109	500	61	1.1	0.9;
	6102	1	872.368294	0	0	0	61	1.13	18.6835	345	61	1.1	0.9;
	6103	1	324.619077	0	0	0	61	1.09911	15.9057	345	61	1.1	0.9;
	6104	1	1404.01263	0	0	0	61	1.03189	8.5247	230	61	1.1	0.9;
	6132	2	0	0	0	0	61	1.1286	19.1657	20	61	1.1	0.9;
	6201	1	115.120217	0	0	0	60	1.12	37.4676	500	60	1.1	0.9;
	6202	1	49.6241297	0	0	0	60	1.144	33.0937	500	60	1.1	0.9;
	6203	1	622.162849	0	0	0	60	1.11276	25.7694	230	60	1.1	0.9;
	6204	1	670.795733	0	0	0	60	1.16459	22.9033	230	60	1.1	0.9;
	6205	1	273.667805	0	0	0	60	1.21767	25.1493	230	60	1.1	0.9;
	6231	2	0	0	0	0	60	1.11876	37.9863	20	60	1.1	0.9;
	6235	2	0	0	0	0	60	1.21683	25.2847	20	60	1.1	0.9;
	6301	1	288.822928	0	0	0	60	1.1068	17.6748	345	60	1.1	0.9;
	6302	1	331.018723	0	0	0	60	0.98175	-13.9242	345	60	1.1	0.9;
	6303	1	417.592902	0	0	0	60	1.13	31.678	230	60	1.1	0.9;
	6304	1	0	0	0	0	60	0.95069	-1.5591	230	60	1.1	0.9;
	6305	1	33.6894756	0	0	0	60	1.06	39.9048	230	60	1.1	0.9;
	6333	2	0	0	0	0	60	1.13399	32.3512	20	60	1.1	0.9;
	6335	2	0	0	0	0	60	1.06168	40.522	20	60	1.1	0.9;
	6401	1	1309.33428	0	0	0	64	0.98376	-11.0849	345	64	1.1	0.9;
	6402	1	213.355448	0	0	0	64	0.98962	-14.5194	115	64	1.1	0.9;
	6403	1	1.72124931	0	0	0	64	1.11	11.7128	345	64	1.1	0.9;
	6404	1	22.689026	0	0	0	64	1.06825	3.1143	345	64	1.1	0.9;
	6433	2	0	0	0	0	64	1.11155	12.0271	20	64	1.1	0.9;
	6501	1	109.373881	0	0	0	60	1.03619	4.3904	345	60	1.1	0.9;
	6502	1	870.072842	0	0	0	60	1.03772	4.3969	345	60	1.1	0.9;
	6503	1	246.747952	0	0	0	60	1.065	20.2424	345	60	1.1	0.9;
	6504	1	166.100764	0	0	0	60	1.03989	4.3753	345	60	1.1	0.9;
	6505	1	3.80043851	0	0	0	60	1.06709	14.667	345	60	1.1	0.9;
	6506	1	0	0	0	0	60	1.05691	13.5124	345	60	1.1	0.9;
	6507	1	302.468831	0	0	0	60	1.04416	6.457	345	60	1.1	0.9;
	6508	1	73.7381803	0	0	0	60	1.03611	8.4532	345	60	1.1	0.9;
	6509	1	4.80638624	0	0	0	60	1.03741	4.3851	345	60	1.1	0.9;
	6510	1	1088.45525	0	0	0	60	1.00043	1.2671	230	60	1.1	0.9;
	6533	2	0	0	0	0	60	1.06674	21.3871	20	60	1.1	0.9;
	7001	1	4169.15862	0	0	0	60	1	-15.2863	345	60	1.1	0.9;
	7002	1	1428.98211	0	0	0	60	1.015	-12.0139	345	60	1.1	0.9;
	7031	2	0	0	0	0	60	1.00629	-13.8355	20	60	1.1	0.9;
	7032	2	0	0	0	0	60	1.01616	-11.1693	20	60	1.1	0.9;
	8001	1	0	0	0	0	80	1.11369	-2.175	500	80	1.1	0.9;
	8002	1	0	0	0	0	80	1.20872	-15.0908	500	80	1.1	0.9;
	8003	1	398.922818	0	0	0	80	1.075	0.7622	230	80	1.1	0.9;
	8004	1	2315.21659	0	0	0	80	1	-24.4627	230	80	1.1	0.9;
	8005	1	807.560594	0	0	0	80	1.09554	-18.6549	230	80	1.1	0.9;
	8033	2	0	0	0	0	80	1.07493	1.1421	20	80	1.1	0.9;
	8034	2	0	0	0	0	80	1.00328	-23.5996	20	80	1.1	0.9;
];

%% generator data
%	bus     Pg      Qg      Qmax	Qmin	Vg	    mBase	status	Pmax	Pmin	Pc1	    Pc2	    Qc1min	Qc1max	Qc2min	Qc2max	ramp_agc ramp_10 ramp_30 ramp_q	apf Gen Idx	Gen Name
mpc.gen = [
	1032	1825	398.34	1030	-1030	1.014	100	    1	    2060	0       0	    0	    0	    0	    0	    0	    0	    0       0	    0	    0;  % 1		FCNGN4CC 20 {1032 C}
	1032	262.8	138.07	357     -357	1.014	100	    1	    714     0       0	    0	    0	    0	    0	    0	    0	    0       0	    0	    0;  % 2     FCNGN4CC 20 {1032 G}
	1032	4064	887.19	2294	-2294	1.014	100	    1	    4587	0       0	    0	    0	    0	    0	    0	    0	    0       0	    0	    0;	% 3     SJUAN G4 20 {1032 C}
	1034	1402	355.03	918     -918	1.014	100	    1	    1835	0       0	    0	    0	    0	    0	    0	    0	    0       0	    0	    0;  % 4     SJUAN G4 20 {1034 G}
	1034	1370	270.72	700     -700	1.014	100	    1	    294		0       0	    0	    0	    0	    0	    0	    0	    0       0	    0	    0;  % 5     SJUAN G4 20 {1034 H}
	1131	545     34.69	308     -308	1.01	100	    1	    615     0       0	    0	    0	    0	    0	    0	    0	    0       0	    0	    0;  % 6     CORONADO 20 {1131 C}
	1131	1287.15	215.79	1916	-1916	1.01	100	    1	    3830.8	0       0	    0	    0	    0	    0	    0	    0	    0       0	    0	    0;  % 7     CORONADO 20 {1131 G}
	1131	48      13.52	120     -120	1.01	100	    0	    240     0       0	    0	    0	    0	    0	    0	    0	    0       0	    0	    0;  % 8     CORONADO 20 {1131 W}
	1232	2140	115.89	1208	-1208	1.08	100	    1	    2415	0       0	    0	    0	    0	    0	    0	    0	    0       0	    0	    0;  % 9     NAVAJO 2 20 {1232 C}
	1232	1244.4	60.25	628     -628	1.08	100	    1	    264		0       0	    0	    0	    0	    0	    0	    0	    0       0	    0	    0;  % 10    NAVAJO 2 20 {1232 H}
	1331	1682	60.55	841     -841	1.045	100	    1	    1682	0       0	    0	    0	    0	    0	    0	    0	    0       0	    0	    0;	% 11    HOOVER   20 {1331 G}
	1331	2438	87.76	1219	-1219	1.045	100	    1	    512		0       0	    0	    0	    0	    0	    0	    0	    0       0	    0	    0;  % 12    HOOVER   20 {1331 H}
	1333	536     66.45	303     -303	1.005	100	    1	    605     0       0	    0	    0	    0	    0	    0	    0	    0       0	    0	    0;  % 13    H ALLEN  20 {1333 C}
	1333	4534.44	602.24	2746	-2746	1.005	100	    1	    5491	0       0	    0	    0	    0	    0	    0	    0	    0       0	    0	    0;  % 14    H ALLEN  20 {1333 G}
	1333	75      8.33	38      -38     1.005	100	    0	    75      0       0	    0	    0	    0	    0	    0	    0	    0       0	    0	    0;  % 15    H ALLEN  20 {1333 R}    or S?
	1431	5012.16	817.62	3559	-3559	1.035	100	    1	    7118.7	0       0	    0	    0	    0	    0	    0	    0	    0       0	    0	    0;  % 16    PALOVRD2 20 {1431 G}
	1431	3825	472.56	2057	-2057	1.035	100	    1	    4113	0       0	    0	    0	    0	    0	    0	    0	    0       0	    0	    0;  % 17    PALOVRD2 20 {1431 N}
	1431	30      3.45	15      -15     1.035	100	    0	    30      0       0	    0	    0	    0	    0	    0	    0	    0       0	    0	    0;  % 18    PALOVRD2 20 {1431 R}    or S?
	2030	1829.04	227.48	1070	-1070	1       100	    1	    2140	0       0	    0	    0	    0	    0	    0	    0	    0       0	    0	    0;  % 19    MEXICO   20 {2030 G}
	2030	629     74.41	350     -350	1       100	    1	    699     0       0	    0	    0	    0	    0	    0	    0	    0       0	    0	    0;  % 20    MEXICO   20 {2030 E}
	2130	171.4	45.95	200     -200	1.035	100	    1	    400     0       0	    0	    0	    0	    0	    0	    0	    0       0	    0	    0;  % 21    IMPERIAL 20 {2130 G}
	2130	507     58.35	254     -254	1.035	100	    1	    507     0       0	    0	    0	    0	    0	    0	    0	    0       0	    0	    0;  % 22    IMPERIAL 20 {2130 E}
	2130	477.8	57.43	250     -250	1.035	100	    1	    105     0       0	    0	    0	    0	    0	    0	    0	    0       0	    0	    0;  % 23    IMPERIAL 20 {2130 H}
	2130	172     19.76	86      -86     1.035	100	    0	    172     0       0	    0	    0	    0	    0	    0	    0	    0       0	    0	    0;  % 24    IMPERIAL 20 {2130 R}
	2130	120     30      60      -60     1.035	100	    0	    120     0       0	    0	    0	    0	    0	    0	    0	    0       0	    0	    0;	% 25    IMPERIAL 20 {2130 S}
	2233	418.71	127.19	304     -118	1.005	100	    1	    706     0       0	    0	    0	    0	    0	    0	    0	    0       0	    0	    0;	% 26    MISSION  20 {2233 DG}     
	2233	344.13	255.64	611     -181	1.005	100	    1	    1253	0       0	    0	    0	    0	    0	    0	    0	    0       0	    0	    0;  % 27    MISSION  20 {2233 EG}   
	2233	231     86.19	206     -155	1.005	100	    1	    500     0       0	    0	    0	    0	    0	    0	    0	    0       0	    0	    0;  % 28    MISSION  20 {2233 TG}     
	2332	878     91.48	590     -364	1.035	100	    1	    1118	0       0	    0	    0	    0	    0	    0	    0	    0       0	    0	    0;  % 29    IMPRLVLY 20 {2332 AG}     
	2438	1043.27	77.83	728     -454	1.009	100	    1	    1563	0       0	    0	    0	    0	    0	    0	    0	    0       0	    0	    0;  % 30    MESA CAL 20 {2438 EG}     
	2438	1816.96	203.33	1902	-1168	1.009	100	    1	    3718	0       0	    0	    0	    0	    0	    0	    0	    0       0	    0	    0;  % 31    MESA CAL 20 {2438 RG}     
	2438	761.99	245.98	2301	-1053	1.009	100	    1	    2803	0       0	    0	    0	    0	    0	    0	    0	    0       0	    0	    0;  % 32    MESA CAL 20 {2438 SG}     
	2438	670     70.45	659     -523	1.009	100	    1	    281		0       0	    0	    0	    0	    0	    0	    0	    0       0	    0	    0;  % 33    MESA CAL 20 {2438 SH}   hydro
	2438	450     50      200     -200	1.009	100	    0	    500     0       0	    0	    0	    0	    0	    0	    0	    0       0	    0	    0;  % 34    MESA CAL 20 {2438 SS}   solar
	2438	473     46.61	436     -197	1.009	100	    0	    946     0       0	    0	    0	    0	    0	    0	    0	    0       0	    0	    0;  % 35    MESA CAL 20 {2438 SR}   generic renewa
	2438	255     59.97	561     -553	1.009	100	    0	    1273	0       0	    0	    0	    0	    0	    0	    0	    0       0	    0	    0;  % 36    MESA CAL 20 {2438 SW}   wind
	2438	2316.2	204.18	1910	-1150	1.009	100	    1	    3967	0       0	    0	    0	    0	    0	    0	    0	    0       0	    0	    0;  % 37    MESA CAL 20 {2438 WG}     
	2438	0       0       0.5     0       1.009	100     0       0	-1006       0	    0	    0	    0	    0	    0	    0	    0       0	    0	    0;  % 38    MESA CAL 20 {2438 ND}   dispatchable l
	2533	2076	367.95	1100	-820	1.009	100	    1	    2232	0       0  	    0	    0	    0	    0	    0	    0	    0       0	    0	    0;  % 39    S.ONOFRE 20 {2533 SN}     
	2630	2281.8	209.93	1346	-1346	1.004	100	    1	    2692	0       0	    0	    0	    0	    0	    0	    0	    0       0	    0	    0;  % 40    HAYNES3G 20 {2630 G}
	2631	232.31	131.92	159     -159	1.015	100	    1	    318     0       0	    0	    0	    0	    0	    0	    0	    0       0	    0	    0;  % 41    OLIVE    20 {2631 G}
	2634	1683	145.08	950     -950	1.06	100	    1	    1900	0       0	    0	    0	    0	    0	    0	    0	    0       0	    0	    0;  % 42    INTERM1G 20 {2634 C}
	2637	110     91.26	110     -110	1.015	100	    1	    23      0       0	    0	    0	    0	    0	    0	    0	    0       0	    0	    0;  % 43    OWENS G  20 {2637 H}
	2638	0       82.97	100     -100	1.015	100	    0	    1272	-1272	0	    0	    0	    0	    0	    0	    0	    0       0	    0	    0;  % 44    CASTAI4G 20 {2638 P}    pumped hydro
	3133	30.8	18.29	42      -29     1       100	    1	    42      0       0	    0	    0	    0	    0	    0	    0	    0       0	    0	    0;  % 45    SANMATEO 20 {3133 NG}      
	3133	0       217.73	500     -500	1       100	    0	    0.1     0       0	    0	    0	    0	    0	    0	    0	    0       0	    0	    0;  % 46    SANMATEO 20 {3133 SC}   sync condensor
	3135	173     65.81	239     -201	1       100	    1	    369     0       0	    0	    0	    0	    0	    0	    0	    0       0	    0	    0;  % 47    POTRERO  20 {3135 MG}      
	3135	19.6	27.54	100     -85     1       100	    1	    241     0       0	    0	    0	    0	    0	    0	    0	    0       0	    0	    0;  % 48    POTRERO  20 {3135 NG}      
	3234	73.6	21.79	101     -75     1.01	100	    1	    121     0       0	    0	    0	    0	    0	    0	    0	    0       0	    0	    0;  % 49    PITSBURG 20 {3234 DG}      
	3234	1864	268.34	1244	-1234	1.01	100	    1	    2628	0       0	    0	    0	    0	    0	    0	    0	    0       0	    0	    0;  % 50    PITSBURG 20 {3234 MG}      
	3234	294.4	82.4	382     -212	1.01	100	    1	    707     0       0	    0	    0	    0	    0	    0	    0	    0       0	    0	    0;  % 51    PITSBURG 20 {3234 NG}      
	3234	138     16.18	75      -55     1.01	100	    0	    690     0       0	    0	    0	    0	    0	    0	    0	    0       0	    0	    0;  % 52    PITSBURG 20 {3234 NW}   wind
	3333	674.8	354.54	398     -226	1       100	    1	    690     0       0	    0	    0	    0	    0	    0	    0	    0       0	    0	    0;  % 53    METCALF  20 {3333 CG}      
	3333	136.4	179.94	202     -143	1       100	    1	    213     0       0	    0	    0	    0	    0	    0	    0	    0       0	    0	    0;  % 54    METCALF  20 {3333 NG}      
	3432	0       190.76	510     -306	1       100	    0	    1218	-924	0	    0	    0	    0	    0	    0	    0	    0       0	    0	    0;  % 55    HELMS PP 20 {3432 NP}   pumped hydro
	3433	42.04	29.16	231     -175	1       100	    1	    628     0       0	    0	    0	    0	    0	    0	    0	    0       0	    0	    0;  % 56    MC CALL  20 {3433 NG}     
	3433	1008	118.53	939     -562	1       100	    1	    424		0       0	    0	    0	    0	    0	    0	    0	    0       0	    0	    0;  % 57    MC CALL  20 {3433 NH}   hydro
	3531	781     58.43	1004	-599	1       100	    1	    868     0       0	    0	    0	    0	    0	    0	    0	    0       0	    0	    0;  % 58    FULTON   20 {3531 CE}   geothermal
	3531	293     14.72	253     -181	1       100	    1	    325     0       0	    0	    0	    0	    0	    0	    0	    0       0	    0	    0;  % 59    FULTON   20 {3531 NE}   geothermal
	3531	15      0.76	13      -10     1       100	    1	    6       0       0	    0	    0	    0	    0	    0	    0	    0       0	    0	    0;  % 60    FULTON   20 {3531 NH}   hydro
	3631	45      -9.82	20      -14     1.015	100	    1	    53      0       0	    0	    0	    0	    0	    0	    0	    0       0	    0	    0;  % 61    HUMBOLDT 20 {3631 NB}   biomass
	3631	52.4	-23.84	74      -34     1.015	100	    1	    143     0       0	    0	    0	    0	    0	    0	    0	    0       0	    0	    0;  % 62    HUMBOLDT 20 {3631 NG}   
	3731	222     200.03	200     -121	1.004	100	    1	    54 	    0       0	    0	    0	    0	    0	    0	    0	    0       0	    0	    0;  % 63    SUMMIT   20 {3731 NH}   hydro
	3831	2108	390.23	1175	-980	1.049	100	    1	    2267	0       0	    0	    0	    0	    0	    0	    0	    0       0	    0	    0;  % 64    DIABLO1  20 {3831 NN}
	3835	279.2	453.76	662     -479	1.035	100	    1	    1381	0       0	    0	    0	    0	    0	    0	    0	    0       0	    0	    0;  % 65    MIDWAY   20 {3835 NG}      
	3835	0       0       0.5     0       1.035	100	    0	    0       -510	0	    0	    0	    0	    0	    0	    0	    0       0	    0	    0;  % 66    MIDWAY   20 {3855 ND}   dispatchable l
	3836	679     42.71	476     -352	1.019	100	    1	    1021	0       0	    0	    0	    0	    0	    0	    0	    0       0	    0	    0;  % 67    MORROBAY 20 {3836 DG}     
	3931	267     17.39	151     -115	1.07	100	    1	    314     0       0	    0	    0	    0	    0	    0	    0	    0       0	    0	    0;  % 68    ROUND MT 20 {3931 NB}   biomass
	3931	1057	147.9	1284	-946	1.07	100	    1	    776		0       0	    0	    0	    0	    0	    0	    0	    0       0	    0	    0;  % 69    ROUND MT 20 {3931 NH}   hydro
	3932	1478	682.25	1150	-500	1       100	    1	    1478	0       0	    0	    0	    0	    0	    0	    0	    0       0	    0	    0;  % 70    MOSSLAND 20 {3932 DG}      
	3933	555.2	54.04	363     -82     1.012	100	    1	    590     0       0	    0	    0	    0	    0	    0	    0	    0       0	    0	    0;  % 71    TESLA    20 {3933 CG}     
	3933	162     11.46	77      -55     1.012	100	    1	    191     0       0	    0	    0	    0	    0	    0	    0	    0       0	    0	    0;  % 72    TESLA    20 {3933 NB}   biomass
	3933	154.8	74.44	500     -307	1.012	100	    1	    1314	0       0	    0	    0	    0	    0	    0	    0	    0       0	    0	    0;  % 73    TESLA    20 {3933 NG}      
	3933	3467	186.98	1256	-1041	1.012	100	    1	    736 	0       0	    0	    0	    0	    0	    0	    0	    0       0	    0	    0;  % 74    TESLA    20 {3933 NH}   hydro
	3933	59      1.94	13      -11     1.012	100	    0	    293     0       0	    0	    0	    0	    0	    0	    0	    0       0	    0	    0;  % 75    TESLA    20 {3933 NW}   wind
	3933	0       0       0.5     0       1.012	100     0	    0       -449    0       0	    0	    0	    0	    0	    0	    0       0	    0	    0;  % 76    TESLA    20 {3933 ND}   dispatchable l
	4039	185.2	41.01	102     -102	1.121	100	    1	    204     0       0	    0	    0	    0	    0	    0	    0	    0       0	    0	    0;  % 77    DALLES21 20 {4039 G}
	4039	2461.43	586.55	1459	-1459	1.121	100	    1	    613		0       0	    0	    0	    0	    0	    0	    0	    0       0	    0	    0;  % 78    DALLES21 20 {4039 H}    
	4039	75      75.58	188     -188	1.121	100	    0	    375     0       0	    0	    0	    0	    0	    0	    0	    0       0	    0	    0;  % 79    DALLES21 20 {4039 W}    
	4031	953.2	99.59	502     -502	1.08	100	    1	    1003	0       0	    0	    0	    0	    0	    0	    0	    0       0	    0	    0;  % 80    MALIN    20 {4031 G}
	4031	878.42	97.01	489     -489	1.08	100	    1	    205     0       0	    0	    0	    0	    0	    0	    0	    0       0	    0	    0;  % 81    MALIN    20 {4031 H}
	4031	75      7.54	38      -38     1.08	100	    0	    75      0       0	    0	    0	    0	    0	    0	    0	    0       0	    0	    0;  % 82    MALIN    20 {4031 R}
	4031	48      23.81	120     -120	1.08	100	    0	    240     0       0	    0	    0	    0	    0	    0	    0	    0       0	    0	    0;  % 83    MALIN    20 {4031 W}
	4035	452     102.51	255     -255	1.121	100	    1	    510     0       0	    0	    0	    0	    0	    0	    0	    0       0	    0	    0;  % 84    JOHN DAY 20 {4035 C}
	4035	445.34	123.42	307     -307	1.121	100	    1	    613     0       0	    0	    0	    0	    0	    0	    0	    0       0	    0	    0;  % 85    JOHN DAY 20 {4035 G} 
	4035	3075.2	738.11	1836	-1836	1.121	100	    1	    771		0       0	    0	    0	    0	    0	    0	    0	    0       0	    0	    0;  % 86    JOHN DAY 20 {4035 H}
	4035	195     196.19	488     -488	1.121	100	    0	    976     0       0	    0	    0	    0	    0	    0	    0	    0       0	    0	    0;  % 87    JOHN DAY 20 {4035 W}
	4131	10082	1050.64	6482	-6482	1.128	100	    1	    2722	0       0	    0	    0	    0	    0	    0	    0	    0       0	    0	    0;  % 88    COULEE   20 {4131 H}
	4131	48      19.45	120     -120	1.128	100	    0	    240     0       0	    0	    0	    0	    0	    0	    0	    0       0	    0	    0;  % 89    COULEE   20 {4131 W}
	4132	575.8	-88.3	1473	-1473	1.096	100	    1	    2945	0       0	    0	    0	    0	    0	    0	    0	    0       0	    0	    0;  % 90    HANFORD  20 {4132 G}
	4132	4619	-170.66	2847	-2847	1.096	100	    1	    1196	0       0	    0	    0	    0	    0	    0	    0	    0       0	    0	    0;  % 91    HANFORD  20 {4132 H}
	4132	1079	-34.77	580     -580	1.096	100	    1	    1160	0       0	    0	    0	    0	    0	    0	    0	    0       0	    0	    0;  % 92    HANFORD  20 {4132 N}
	4132	461     -13.85	231     -231	1.096	100	    0	    461     0       0	    0	    0	    0	    0	    0	    0	    0       0	    0	    0;  % 93    HANFORD  20 {4132 R}
	4132	35      -5.27	88      -88     1.096	100	    0	    175     0       0	    0	    0	    0	    0	    0	    0	    0       0	    0	    0;  % 94    HANFORD  20 {4132 W}
	4231	1290	339.68	728     -728	1.12	100	    1	    1456	0       0	    0	    0	    0	    0	    0	    0	    0       0	    0	    0;  % 95    NORTH G3 20 {4231 C}
	4231	364.6	307.49	659     -659	1.12	100	    1	    1317	0       0	    0	    0	    0	    0	    0	    0	    0       0	    0	    0;  % 96    NORTH G3 20 {4231 G}